# Basic package file for MODFLOW, generated by Flopy.
 FREE
INTERNAL               1  (200I10)  -1 #ibound Layer 1                
         1         1         1         1         1         1         1         1         1         1         1         1         1         1         1         1         1         1         1         1         1         1         1         1         1         1         1         1         1         1         1         1         1         1         1         1         1         1         1         1         1         1         1         1         1         1         1         1         1         1         1         1         1         1         1         1         1         1         1         1         1         1         1         1         1         1         1         1         1         1         1         1         1         1         1         1         1         1         1         1         1         1         1         1         1         1         1         1         1         1         1         1         1         1         1         1         1         1         1         1         1         1         1         1         1         1         1         1         1         1         1         1         1         1         1         1         1         1         1         1         1         1         1         1         1         1         1         1         1         1         1         1         1         1         1         1         1         1         1         1         1         1         1         1         1         1         1         1         1         1         1         1         1         1         1         1         1         1         1         1         1         1         1         1         1         1         1         1         1         1         1         1         1         1         1         1         1         1         1         1         1         1         1         1         1         1         1         1         1         1         1         1         1         1         1         1         1         1         1        -1
CONSTANT          1                                #ibound Layer 2                
CONSTANT          1                                #ibound Layer 3                
CONSTANT          1                                #ibound Layer 4                
CONSTANT          1                                #ibound Layer 5                
CONSTANT          1                                #ibound Layer 6                
CONSTANT          1                                #ibound Layer 7                
CONSTANT          1                                #ibound Layer 8                
CONSTANT          1                                #ibound Layer 9                
CONSTANT          1                                #ibound Layer 10               
CONSTANT          1                                #ibound Layer 11               
CONSTANT          1                                #ibound Layer 12               
CONSTANT          1                                #ibound Layer 13               
CONSTANT          1                                #ibound Layer 14               
CONSTANT          1                                #ibound Layer 15               
CONSTANT          1                                #ibound Layer 16               
CONSTANT          1                                #ibound Layer 17               
CONSTANT          1                                #ibound Layer 18               
CONSTANT          1                                #ibound Layer 19               
CONSTANT          1                                #ibound Layer 20               
CONSTANT          1                                #ibound Layer 21               
        -999.99
CONSTANT    0.000000E+00                           #strt Layer 1                  
CONSTANT    0.000000E+00                           #strt Layer 2                  
CONSTANT    0.000000E+00                           #strt Layer 3                  
CONSTANT    0.000000E+00                           #strt Layer 4                  
CONSTANT    0.000000E+00                           #strt Layer 5                  
CONSTANT    0.000000E+00                           #strt Layer 6                  
CONSTANT    0.000000E+00                           #strt Layer 7                  
CONSTANT    0.000000E+00                           #strt Layer 8                  
CONSTANT    0.000000E+00                           #strt Layer 9                  
CONSTANT    0.000000E+00                           #strt Layer 10                 
CONSTANT    0.000000E+00                           #strt Layer 11                 
CONSTANT    0.000000E+00                           #strt Layer 12                 
CONSTANT    0.000000E+00                           #strt Layer 13                 
CONSTANT    0.000000E+00                           #strt Layer 14                 
CONSTANT    0.000000E+00                           #strt Layer 15                 
CONSTANT    0.000000E+00                           #strt Layer 16                 
CONSTANT    0.000000E+00                           #strt Layer 17                 
CONSTANT    0.000000E+00                           #strt Layer 18                 
CONSTANT    0.000000E+00                           #strt Layer 19                 
CONSTANT    0.000000E+00                           #strt Layer 20                 
CONSTANT    0.000000E+00                           #strt Layer 21                 
