# UPW for MODFLOW-NWT, generated by Flopy.
        53    -1E+30         0         0 
         1         1         1         1         1         1         1         1         1         1         1         1         1         1         1         1         1         1         1         1         1
         0         0         0         0         0         0         0         0         0         0         0         0         0         0         0         0         0         0         0         0         0
         1         1         1         1         1         1         1         1         1         1         1         1         1         1         1         1         1         1         1         1         1
         0         0         0         0         0         0         0         0         0         0         0         0         0         0         0         0         0         0         0         0         0
         0         0         0         0         0         0         0         0         0         0         0         0         0         0         0         0         0         0         0         0         0
CONSTANT    2.500000E+02                           #hk Layer 1                    
CONSTANT    5.000000E+01                           #vka Layer 1                   
CONSTANT    2.500000E+02                           #hk Layer 2                    
CONSTANT    5.000000E+01                           #vka Layer 2                   
CONSTANT    2.500000E+02                           #hk Layer 3                    
CONSTANT    5.000000E+01                           #vka Layer 3                   
CONSTANT    2.500000E+02                           #hk Layer 4                    
CONSTANT    5.000000E+01                           #vka Layer 4                   
CONSTANT    2.500000E+02                           #hk Layer 5                    
CONSTANT    5.000000E+01                           #vka Layer 5                   
CONSTANT    2.500000E+02                           #hk Layer 6                    
CONSTANT    5.000000E+01                           #vka Layer 6                   
CONSTANT    2.500000E+02                           #hk Layer 7                    
CONSTANT    5.000000E+01                           #vka Layer 7                   
CONSTANT    2.500000E+02                           #hk Layer 8                    
CONSTANT    5.000000E+01                           #vka Layer 8                   
CONSTANT    2.500000E+02                           #hk Layer 9                    
CONSTANT    5.000000E+01                           #vka Layer 9                   
CONSTANT    2.500000E+02                           #hk Layer 10                   
CONSTANT    5.000000E+01                           #vka Layer 10                  
CONSTANT    2.500000E+02                           #hk Layer 11                   
CONSTANT    5.000000E+01                           #vka Layer 11                  
CONSTANT    2.500000E+02                           #hk Layer 12                   
CONSTANT    5.000000E+01                           #vka Layer 12                  
CONSTANT    2.500000E+02                           #hk Layer 13                   
CONSTANT    5.000000E+01                           #vka Layer 13                  
CONSTANT    2.500000E+02                           #hk Layer 14                   
CONSTANT    5.000000E+01                           #vka Layer 14                  
CONSTANT    2.500000E+02                           #hk Layer 15                   
CONSTANT    5.000000E+01                           #vka Layer 15                  
CONSTANT    2.500000E+02                           #hk Layer 16                   
CONSTANT    5.000000E+01                           #vka Layer 16                  
CONSTANT    2.500000E+02                           #hk Layer 17                   
CONSTANT    5.000000E+01                           #vka Layer 17                  
CONSTANT    2.500000E+02                           #hk Layer 18                   
CONSTANT    5.000000E+01                           #vka Layer 18                  
CONSTANT    2.500000E+02                           #hk Layer 19                   
CONSTANT    5.000000E+01                           #vka Layer 19                  
CONSTANT    2.500000E+02                           #hk Layer 20                   
CONSTANT    5.000000E+01                           #vka Layer 20                  
CONSTANT    2.500000E+02                           #hk Layer 21                   
CONSTANT    5.000000E+01                           #vka Layer 21                  
