# Discretization file for MODFLOW, generated by Flopy.
        21         1       200         1         4         2
  0  0  0  0  0  0  0  0  0  0  0  0  0  0  0  0  0  0  0  0  0
CONSTANT    5.000000E+01                           #delr                          
CONSTANT    1.000000E+00                           #delc                          
CONSTANT    1.000000E+01                           #model_top                     
CONSTANT   -5.000000E+00                           #botm Layer 1                  
CONSTANT   -1.500000E+01                           #botm Layer 2                  
CONSTANT   -2.500000E+01                           #botm Layer 3                  
CONSTANT   -3.500000E+01                           #botm Layer 4                  
CONSTANT   -4.500000E+01                           #botm Layer 5                  
CONSTANT   -5.500000E+01                           #botm Layer 6                  
CONSTANT   -6.500000E+01                           #botm Layer 7                  
CONSTANT   -7.500000E+01                           #botm Layer 8                  
CONSTANT   -8.500000E+01                           #botm Layer 9                  
CONSTANT   -9.500000E+01                           #botm Layer 10                 
CONSTANT   -1.050000E+02                           #botm Layer 11                 
CONSTANT   -1.150000E+02                           #botm Layer 12                 
CONSTANT   -1.250000E+02                           #botm Layer 13                 
CONSTANT   -1.350000E+02                           #botm Layer 14                 
CONSTANT   -1.450000E+02                           #botm Layer 15                 
CONSTANT   -1.550000E+02                           #botm Layer 16                 
CONSTANT   -1.650000E+02                           #botm Layer 17                 
CONSTANT   -1.750000E+02                           #botm Layer 18                 
CONSTANT   -1.850000E+02                           #botm Layer 19                 
CONSTANT   -1.950000E+02                           #botm Layer 20                 
CONSTANT   -2.050000E+02                           #botm Layer 21                 
      1.000000             1  1.000000  SS 
