begin options
end options
#
BEGIN GRIDDATA
  icelltype
    constant 1
  k LAYERED
    constant 250 layer 1
    open/close hk.ref 1. (free) -1 layer 2
    open/close hk.ref 1. (free) -1 layer 3
    open/close hk.ref 1. (free) -1 layer 4
    open/close hk.ref 1. (free) -1 layer 5
    open/close hk.ref 1. (free) -1 layer 6
    open/close hk.ref 1. (free) -1 layer 7
    open/close hk.ref 1. (free) -1 layer 8
    open/close hk.ref 1. (free) -1 layer 9
    open/close hk.ref 1. (free) -1 layer 10
    open/close hk.ref 1. (free) -1 layer 11
    open/close hk.ref 1. (free) -1 layer 12
    open/close hk.ref 1. (free) -1 layer 13
    constant 250 layer 14
    constant 250 layer 15
    constant 250 layer 16
    constant 250 layer 17
    constant 250 layer 18
    constant 250 layer 19
    constant 250 layer 20
    constant 250 layer 21
    constant 250 layer 22
    constant 250 layer 23
    constant 250 layer 24
    constant 250 layer 25
    constant 250 layer 26
    constant 250 layer 27
    constant 250 layer 28
    constant 250 layer 29
    constant 250 layer 30
    constant 250 layer 31
    constant 250 layer 32
    constant 250 layer 33
    constant 250 layer 34
    constant 250 layer 35
    constant 250 layer 36
    constant 250 layer 37
    constant 250 layer 38
    constant 250 layer 39
    constant 250 layer 40
    constant 250 layer 41
  K33 LAYERED
    constant  50 layer 1
    open/close vka.ref 1. (free) -1 layer 2
    open/close vka.ref 1. (free) -1 layer 3
    open/close vka.ref 1. (free) -1 layer 4
    open/close vka.ref 1. (free) -1 layer 5
    open/close vka.ref 1. (free) -1 layer 6
    open/close vka.ref 1. (free) -1 layer 7
    open/close vka.ref 1. (free) -1 layer 8
    open/close vka.ref 1. (free) -1 layer 9
    open/close vka.ref 1. (free) -1 layer 10
    open/close vka.ref 1. (free) -1 layer 11
    open/close vka.ref 1. (free) -1 layer 12
    open/close vka.ref 1. (free) -1 layer 13
    constant  50 layer 14
    constant  50 layer 15
    constant  50 layer 16
    constant  50 layer 17
    constant  50 layer 18
    constant  50 layer 19
    constant  50 layer 20
    constant  50 layer 21
    constant  50 layer 22
    constant  50 layer 23
    constant  50 layer 24
    constant  50 layer 25
    constant  50 layer 26
    constant  50 layer 27
    constant  50 layer 28
    constant  50 layer 29
    constant  50 layer 30
    constant  50 layer 31
    constant  50 layer 32
    constant  50 layer 33
    constant  50 layer 34
    constant  50 layer 35
    constant  50 layer 36
    constant  50 layer 37
    constant  50 layer 38
    constant  50 layer 39
    constant  50 layer 40
    constant  50 layer 41
END GRIDDATA

