#option block.  Note -- no comments allowed on auxiliary line
begin options
  PRINT_INPUT (echo input to listing file)
  PRINT_FLOWS  (print the flows to the listing file)
  OBS8 FILEIN        Reilly.maw.obs
  NO_WELL_STORAGE
end options

begin dimensions
  NMAWWELLS 1
end dimensions

BEGIN PACKAGEDATA
#      no ngwnodes name          
#      no radius bottom  strt   condeqn ngwnodes name          
        1 0.1333   -65. 10.0  SPECIFIED       38 'ntwell'       
END PACKAGEDATA

BEGIN CONNECTIONDATA
#   conn  l  r  c  stop sbot     K      rskin
  1    1  1 16 14     0   -5  0.5462        0
  1    2  2 15 14    -5  -65 1985.56        0
  1    3  2 16 13    -5  -65  498.49        0
  1    4  2 16 15    -5  -65  498.49        0
  1    5  3 15 14    -5  -65 1985.56        0
  1    6  3 16 13    -5  -65  498.49        0
  1    7  3 16 15    -5  -65  498.49        0
  1    8  4 15 14    -5  -65 1985.56        0
  1    9  4 16 13    -5  -65  498.49        0
  1   10  4 16 15    -5  -65  498.49        0
  1   11  5 15 14    -5  -65 1985.56        0
  1   12  5 16 13    -5  -65  498.49        0
  1   13  5 16 15    -5  -65  498.49        0
  1   14  6 15 14    -5  -65 1985.56        0
  1   15  6 16 13    -5  -65  498.49        0
  1   16  6 16 15    -5  -65  498.49        0
  1   17  7 15 14    -5  -65 1985.56        0
  1   18  7 16 13    -5  -65  498.49        0
  1   19  7 16 15    -5  -65  498.49        0
  1   20  8 15 14    -5  -65 1985.56        0
  1   21  8 16 13    -5  -65  498.49        0
  1   22  8 16 15    -5  -65  498.49        0
  1   23  9 15 14    -5  -65 1985.56        0
  1   24  9 16 13    -5  -65  498.49        0
  1   25  9 16 15    -5  -65  498.49        0
  1   26 10 15 14    -5  -65 1985.56        0
  1   27 10 16 13    -5  -65  498.49        0
  1   28 10 16 15    -5  -65  498.49        0
  1   29 11 15 14    -5  -65 1985.56        0
  1   30 11 16 13    -5  -65  498.49        0
  1   31 11 16 15    -5  -65  498.49        0
  1   32 12 15 14    -5  -65 1985.56        0
  1   33 12 16 13    -5  -65  498.49        0
  1   34 12 16 15    -5  -65  498.49        0
  1   35 13 15 14    -5  -65 1985.56        0
  1   36 13 16 13    -5  -65  498.49        0
  1   37 13 16 15    -5  -65  498.49        0
  1   38 14 16 14   -65  -70  0.5462        0
END CONNECTIONDATA

begin period 1
  1 rate 0.0
end period
