begin options
  digits 10
end options

#
# Blocks defining continuous observations
#

begin continuous Reilly_MAW.csv
  M1HEAD    HEAD  1
  M1RATE0101  MAW 1  1
  M1RATE0102  MAW 1  2
  M1RATE0202  MAW 1  3
  M1RATE0302  MAW 1  4
  M1RATE0103  MAW 1  5
  M1RATE0203  MAW 1  6
  M1RATE0303  MAW 1  7
  M1RATE0104  MAW 1  8
  M1RATE0204  MAW 1  9
  M1RATE0304  MAW 1 10
  M1RATE0105  MAW 1 11
  M1RATE0205  MAW 1 12
  M1RATE0305  MAW 1 13
  M1RATE0106  MAW 1 14
  M1RATE0206  MAW 1 15
  M1RATE0306  MAW 1 16
  M1RATE0107  MAW 1 17
  M1RATE0207  MAW 1 18
  M1RATE0307  MAW 1 19
  M1RATE0108  MAW 1 20
  M1RATE0208  MAW 1 21
  M1RATE0308  MAW 1 22
  M1RATE0109  MAW 1 23
  M1RATE0209  MAW 1 24
  M1RATE0309  MAW 1 25
  M1RATE0110  MAW 1 26
  M1RATE0210  MAW 1 27
  M1RATE0310  MAW 1 28
  M1RATE0111  MAW 1 29
  M1RATE0211  MAW 1 30
  M1RATE0311  MAW 1 31
  M1RATE0112  MAW 1 32
  M1RATE0212  MAW 1 33
  M1RATE0312  MAW 1 34
  M1RATE0113  MAW 1 35
  M1RATE0213  MAW 1 36
  M1RATE0313  MAW 1 37
  M1RATE0114  MAW 1 38
end continuous

