BEGIN OPTIONS
  HEAD PRINT_FORMAT 4
  HEAD FILEOUT Reilly.hds
END OPTIONS

BEGIN PERIOD 1
  PRINT BUDGET ALL
  SAVE HEAD ALL
END PERIOD
