begin options
  digits 10
end options

#
# Blocks defining continuous observations
#

begin continuous Reilly_MAW.csv
  M1HEAD    HEAD  1
  M1RATE0101  CONNRATE 1  1
  M1RATE0102  CONNRATE 1  2
  M1RATE0202  CONNRATE 1  3
  M1RATE0302  CONNRATE 1  4
  M1RATE0103  CONNRATE 1  5
  M1RATE0203  CONNRATE 1  6
  M1RATE0303  CONNRATE 1  7
  M1RATE0104  CONNRATE 1  8
  M1RATE0204  CONNRATE 1  9
  M1RATE0304  CONNRATE 1 10
  M1RATE0105  CONNRATE 1 11
  M1RATE0205  CONNRATE 1 12
  M1RATE0305  CONNRATE 1 13
  M1RATE0106  CONNRATE 1 14
  M1RATE0206  CONNRATE 1 15
  M1RATE0306  CONNRATE 1 16
  M1RATE0107  CONNRATE 1 17
  M1RATE0207  CONNRATE 1 18
  M1RATE0307  CONNRATE 1 19
  M1RATE0108  CONNRATE 1 20
  M1RATE0208  CONNRATE 1 21
  M1RATE0308  CONNRATE 1 22
  M1RATE0109  CONNRATE 1 23
  M1RATE0209  CONNRATE 1 24
  M1RATE0309  CONNRATE 1 25
  M1RATE0110  CONNRATE 1 26
  M1RATE0210  CONNRATE 1 27
  M1RATE0310  CONNRATE 1 28
  M1RATE0111  CONNRATE 1 29
  M1RATE0211  CONNRATE 1 30
  M1RATE0311  CONNRATE 1 31
  M1RATE0112  CONNRATE 1 32
  M1RATE0212  CONNRATE 1 33
  M1RATE0312  CONNRATE 1 34
  M1RATE0113  CONNRATE 1 35
  M1RATE0213  CONNRATE 1 36
  M1RATE0313  CONNRATE 1 37
  M1RATE0114  CONNRATE 1 38
end continuous

