BEGIN OPTIONS
  HIGHEST_ACTIVE
END OPTIONS

#dimension block is required
BEGIN DIMENSIONS
  MAXBOUND 8160
END DIMENSIONS

BEGIN PERIOD 1
  NLARRAY
    constant 1
  RECHARGE
    constant 4.56600000000000E-0003
END PERIOD
